Version 4
SHEET 1 880 680
WIRE -96 -192 -576 -192
WIRE 48 -192 -96 -192
WIRE 416 -192 304 -192
WIRE -96 -128 -96 -192
WIRE -576 -32 -576 -192
WIRE -96 -16 -96 -48
WIRE 176 -16 176 -96
WIRE 176 -16 -96 -16
WIRE 528 -16 176 -16
WIRE -96 0 -96 -16
WIRE 176 32 176 -16
WIRE -96 128 -96 80
WIRE 48 128 -96 128
WIRE 416 128 304 128
WIRE -96 192 -96 128
FLAG -576 48 0
FLAG -96 192 0
FLAG 416 -192 +12V
FLAG 416 128 -12V
SYMBOL voltage -576 -48 R0
WINDOW 123 0 0 Left 0
WINDOW 39 0 0 Left 0
SYMATTR InstName V1
SYMATTR Value 24
SYMBOL ZZZ\\VolReg\\7812 176 -192 R0
SYMATTR InstName U2
SYMBOL res -112 -144 R0
SYMATTR InstName R1
SYMATTR Value 12k
SYMBOL res -112 -16 R0
SYMATTR InstName R2
SYMATTR Value 12k
SYMBOL ZZZ\\VolReg\\7912 176 128 M180
SYMATTR InstName U1
TEXT -610 220 Left 2 !.tran 1s
